%chk=OOFCl_0.chk
# B3LYP/def2QZVPP Int(Grid=UltraFineGrid) SCF(verytight,maxcycles=1000) 

TEST

0 1
C     -0.966946    0.549416    0.000000
O     -2.136715    0.445692    0.000000
F     -0.335928    1.725102    0.000000
C      0.000000   -0.660843    0.000000
O     -0.405478   -1.766520    0.000000
Cl     1.715445   -0.252396    0.000000


