%chk=OOFCl_60.chk
# B3LYP/def2QZVPP Int(Grid=UltraFineGrid) SCF(verytight,maxcycles=1000)

TEST

0 1
C      -1.081221   -0.047722   -0.068012
O      -1.903188    0.339755   -0.811930
F      -1.239981   -1.121199    0.717653
C       0.299489    0.579710    0.131603
O       0.467358    1.689072    0.490502
Cl      1.608051   -0.548927   -0.251118


